Circuit: * D:\Users\traek_000\Documents\Electronics\LTSpice\Draft4.asc

Fatal Error: Transformer: Missing node(s).
