Circuit: * D:\Users\traek_000\Documents\Electronics\LTSpice\OpAmp01.asc

Ignoring empty pin current: Ix(u1:1)
Ignoring empty pin current: Ix(u1:2)
.OP point found by inspection.

Date: Mon Aug 25 16:30:43 2014
Total elapsed time: 0.019 seconds.

tnom = 27
temp = 27
method = trap
totiter = 2000
traniter = 0
tranpoints = 0
accept = 0
rejected = 0
matrix size = 4
fillins = 0
solver = Normal
Matrix Compiler1: 100 bytes object code size  0.1/0.0/[0.0]
Matrix Compiler2: 248 bytes object code size  0.0/0.0/[0.0]


