Circuit: * D:\Users\traek_000\Documents\Electronics\LTSpice\Simple01.asc

Direct Newton iteration for .op point succeeded.

Date: Fri Aug 08 09:19:46 2014
Total elapsed time: 0.017 seconds.

tnom = 27
temp = 27
method = trap
totiter = 3
traniter = 0
tranpoints = 0
accept = 0
rejected = 0
matrix size = 4
fillins = 0
solver = Normal
Matrix Compiler1: 100 bytes object code size
Matrix Compiler2: 248 bytes object code size

