Circuit: * D:\Users\traek\source\repos\ElectronicsNotes\Electronics\LTSpice\VoltageDivider01.asc

Direct Newton iteration for .op point succeeded.

Date: Fri Nov 30 16:42:05 2018
Total elapsed time: 0.039 seconds.

tnom = 27
temp = 27
method = trap
totiter = 3
traniter = 0
tranpoints = 0
accept = 0
rejected = 0
matrix size = 9
fillins = 0
solver = Normal
Matrix Compiler1: 206 bytes object code size
Matrix Compiler2: 505 bytes object code size
