Circuit: * D:\Users\traek\source\repos\ElectronicsNotes\Electronics\LTSpice\VoltageDivider02.asc

Direct Newton iteration for .op point succeeded.

Date: Sun Dec 02 05:25:29 2018
Total elapsed time: 0.032 seconds.

tnom = 27
temp = 27
method = trap
totiter = 3
traniter = 0
tranpoints = 0
accept = 0
rejected = 0
matrix size = 3
fillins = 0
solver = Normal
Matrix Compiler1: 50 bytes object code size
Matrix Compiler2: 175 bytes object code size
